Circuit: * D:\Documentos\2_Faculdade\2.1_TCC\IotSoilSensor\1_Simulations\HR202\Draft1.asc

Direct Newton iteration failed to find .op point.  (Use ".option noopiter" to skip.)
Starting Gmin stepping
Gmin = 10
Gmin = 1.07374
Gmin = 0.115292
Gmin = 0.0123794
Gmin = 0.00132923
Gmin = 0.000142725
Gmin = 1.5325e-005
Gmin = 1.6455e-006
Gmin = 1.76685e-007
Gmin = 1.89714e-008
Gmin = 2.03704e-009
Gmin = 2.18725e-010
Gmin = 2.34854e-011
Gmin = 2.52173e-012
Gmin = 2.70769e-013
Gmin = 0
Gmin stepping succeeded in finding the operating point.

.step c=5e-011
.step c=2.5e-010
.step c=4.5e-010
.step c=6.5e-010
.step c=8.5e-010
.step c=1e-009

Date: Tue Nov 13 21:55:37 2018
Total elapsed time: 0.825 seconds.

tnom = 27
temp = 27
method = modified trap
totiter = 11558
traniter = 11075
tranpoints = 4172
accept = 3481
rejected = 691
matrix size = 14
fillins = 5
solver = Normal
Matrix Compiler1: 898 bytes object code size  0.2/0.2/[0.0]
Matrix Compiler2: off  [0.2]/0.2/0.2

